LAMMPS (7 Dec 2018)
# 3d Lennard-Jones melt

variable	xx equal 4.5
variable	yy equal 4.5
variable	zz equal 4.5

variable temperature equal 1.5

units		lj
atom_style	atomic

# lattice		fcc 0.0001
region		box block -4.5 4.5 -4.5 4.5 -4.5 4.5
create_box	1 box
Created orthogonal box = (-4.5 -4.5 -4.5) to (4.5 4.5 4.5)
create_atoms	1 random  800 1234 box
Created 800 atoms
  Time spent = 0.000486 secs
mass		1 1.0

read_dump tj.xyz 50 x y z box no format xyz purge yes replace yes
  orthogonal box = (-4.5 -4.5 -4.5) to (4.5 4.5 4.5)
  800 atoms before read
  800 atoms in snapshot
  0 atoms purged
  800 atoms replaced
  0 atoms trimmed
  0 atoms added
  800 atoms after read

velocity	all create 1.5 87287 loop geom
pair_style	lj/cut 2.5
pair_coeff	1 1 1.0 1.0 2.5
pair_modify     shift yes

neighbor	0.3 bin
neigh_modify	delay 0 every 20 check no

fix		1 all nvt temp 1.5 1.5 0.1
dump dumper all  atom 100 tj.dump

thermo 500

run		100000
  update every 20 steps, delay 0 steps, check no
Step Temp E_pair E_mol TotEng Press
50          1.5    -4.042595            0   -1.7954075    22.323936
Averages over the last 101 of 202 rows, steps 50500 to 100050:
Temp E_pair E_mol TotEng Press
1.49723 -4.2743 0 -2.03126 21.0472
Loop time of 58.7467 on 1 procs for 100000 steps with 800 atoms

# rerun tj.xyz dump x y z box no format xyz
